Version 4
SHEET 1 880 680
WIRE -112 96 -208 96
WIRE 48 96 -32 96
WIRE 176 96 48 96
WIRE 240 96 176 96
WIRE 416 96 352 96
WIRE 544 96 496 96
WIRE 352 112 352 96
WIRE 352 112 304 112
WIRE -208 128 -208 96
WIRE 48 128 48 96
WIRE 240 128 224 128
WIRE 176 144 176 96
WIRE 544 144 544 96
WIRE 224 176 224 128
WIRE 352 176 352 112
WIRE 352 176 224 176
WIRE -208 240 -208 208
WIRE 48 240 48 208
WIRE 48 240 -208 240
WIRE 176 240 176 208
WIRE 176 240 48 240
WIRE 544 240 544 208
WIRE 544 240 176 240
WIRE 544 288 544 240
FLAG 544 96 Vo
IOPIN 544 96 Out
FLAG -208 96 Vi
IOPIN -208 96 In
FLAG 544 288 0
SYMBOL res 512 80 R90
WINDOW 0 0 56 VBottom 2
WINDOW 3 32 56 VTop 2
SYMATTR InstName R1
SYMATTR Value {1/C}
SYMBOL cap 528 144 R0
SYMATTR InstName C1
SYMATTR Value {C}
SYMBOL ind -128 112 R270
WINDOW 0 32 56 VTop 2
WINDOW 3 5 56 VBottom 2
SYMATTR InstName L1
SYMATTR Value {1/1.41*C}
SYMBOL res 32 112 R0
SYMATTR InstName R2
SYMATTR Value {1/1.41*C}
SYMBOL cap 160 144 R0
SYMATTR InstName C2
SYMATTR Value {C}
SYMBOL OpAmps\\opamp 272 48 R0
SYMATTR InstName U1
SYMBOL voltage -208 112 R0
WINDOW 3 -71 -119 Left 2
WINDOW 123 -66 -145 Left 2
WINDOW 39 0 0 Left 0
SYMATTR InstName V1
SYMATTR Value SINE(0 10m 1k)
SYMATTR Value2 AC 10m
TEXT -248 288 Left 2 !.param C =1
TEXT -252 340 Left 2 !.ac dec 10 100 100k
TEXT -272 -64 Left 2 !.inc opamp.sub
